* File: accumulator.pex.netlist.pex
* Created: Fri Nov  6 14:52:36 2020
* Program "Calibre xRC"
* Version "v2011.3_29.20"
* Nominal Temperature: 27C
* Circuit Temperature: 27C
* 
.subckt PM_ACCUMULATOR%A 10 13 16 19 21 23 25 27 28 30 31 33 37 39
c78 37 0 0.00454115f
c79 33 0 0.00472436f
c80 31 0 0.126936f
c81 30 0 0.00617912f
c82 28 0 0.00208563f
c83 27 0 0.00640774f
c84 25 0 0.00186298f
c85 23 0 0.0160124f
c86 21 0 0.0238084f
c87 19 0 0.0684194f
c88 16 0 0.0928689f
c89 13 0 0.0941951f
c90 10 0 0.0649954f
r91 35 37 102.4
r92 35 39 6.69643
r93 31 33 102.4
r94 31 35 9.27679
r95 28 30 89.3538
r96 25 27 89.3538
r97 24 37 0.0223169
r98 23 25 0.0223169
r99 23 24 2.98154
r100 21 28 0.0223169
r101 21 33 4.07769
r102 18 30 4.7687
r103 18 19 95.16
r104 15 30 4.7687
r105 15 16 172.77
r106 12 27 4.7687
r107 12 13 193.83
r108 9 27 4.7687
r109 9 10 119.73
.ends

.subckt PM_ACCUMULATOR%XI0/NET18 16 19 22 25 28 33 35 37 39 41 43 45 46 53 56 61
+ 64 66 68 75 79 86 89
c187 89 0 0.00434692f
c188 86 0 0.00450664f
c189 79 0 0.00561464f
c190 75 0 0.00505571f
c191 68 0 0.00523534f
c192 66 0 0.0893413f
c193 64 0 0.00452603f
c194 61 0 0.00448172f
c195 56 0 0.125756f
c196 53 0 0.0023348f
c197 48 0 0.00624711f
c198 46 0 0.0015474f
c199 45 0 0.0047565f
c200 43 0 0.00202955f
c201 41 0 0.0347731f
c202 39 0 0.0134643f
c203 37 0 0.0287807f
c204 35 0 0.0236029f
c205 33 0 0.0818772f
c206 28 0 0.0335814f
c207 25 0 0.080998f
c208 22 0 0.0786277f
c209 19 0 0.0807282f
c210 16 0 0.0335814f
r211 73 75 102.4
r212 71 73 3.67857
r213 71 89 102.4
r214 66 68 102.4
r215 66 71 3.92857
r216 62 64 102.4
r217 59 61 102.4
r218 59 62 10.8393
r219 56 59 12.125
r220 56 86 102.4
r221 53 79 89.3538
r222 46 48 89.3538
r223 46 50 0.0146154
r224 43 45 89.3538
r225 42 43 0.0223169
r226 41 53 0.0223169
r227 41 42 7.48308
r228 39 89 0.0223169
r229 39 64 2.61615
r230 38 61 0.0223169
r231 37 50 0.0223169
r232 37 38 5.15923
r233 36 86 0.0223169
r234 35 43 0.0223169
r235 35 36 3.96077
r236 31 79 4.7687
r237 31 33 216.45
r238 27 79 4.7687
r239 27 28 56.55
r240 24 48 4.7687
r241 24 25 125.97
r242 21 48 4.7687
r243 21 22 141.96
r244 18 45 4.7687
r245 18 19 216.45
r246 15 45 4.7687
r247 15 16 56.55
.ends

.subckt PM_ACCUMULATOR%GND 110 112 114 117 125 130 132 141 148 150 157 159 162
+ 164 166 168 174 183 188 190 198 200 207 226 249 251 258 272 276 295 299 300
+ 302 307 310 312 316 320 324 330 336 339
c270 339 0 0.00522915f
c271 336 0 0.0020911f
c272 330 0 0.00568467f
c273 316 0 0.00373041f
c274 312 0 0.0104438f
c275 310 0 0.00519015f
c276 307 0 0.00251202f
c277 302 0 0.0106503f
c278 300 0 0.332042f
c279 258 0 0.00514752f
c280 207 0 0.36432f
c281 200 0 0.377857f
c282 198 0 0.314398f
c283 190 0 0.0113545f
c284 188 0 0.00348116f
c285 183 0 0.00675979f
c286 174 0 0.00888527f
c287 168 0 0.00508827f
c288 166 0 0.00865722f
c289 164 0 0.00554755f
c290 162 0 0.00882345f
c291 161 0 6.83138e-21
c292 159 0 0.00583385f
c293 157 0 0.00907741f
c294 150 0 0.0018124f
c295 148 0 0.00914832f
c296 141 0 0.0129244f
c297 132 0 0.00912662f
c298 130 0 0.00348232f
c299 125 0 0.00661756f
c300 117 0 0.00760306f
c301 115 0 0.00581195f
c302 114 0 0.00557906f
c303 112 0 0.00601988f
c304 110 0 0.0109153f
r305 299 300 0.437
r306 295 299 0.4522
r307 294 295 0.1539
r308 293 294 0.285
r309 293 295 0.3097
r310 289 295 0.2812
r311 288 289 0.1311
r312 288 295 0.0228
r313 284 295 0.0518616
r314 275 276 0.2812
r315 272 275 0.2223
r316 269 272 1.0564
r317 268 269 0.1178
r318 268 272 0.1463
r319 264 272 0.0896727
r320 249 251 0.0292663
r321 245 251 0.0937522
r322 241 251 0.115407
r323 237 251 0.109476
r324 233 251 0.111361
r325 228 251 0.2033
r326 222 241 102.4
r327 219 237 102.4
r328 216 264 102.4
r329 214 258 0.00140741
r330 212 214 102.4
r331 210 228 102.4
r332 207 276 0.4902
r333 205 207 102.4
r334 203 205 21.0536
r335 203 300 102.4
r336 200 251 0.4047
r337 198 200 102.4
r338 198 203 21.1071
r339 195 275 102.4
r340 192 339 0.00844444
r341 190 192 102.4
r342 190 195 1.03571
r343 188 336 0.0281481
r344 186 188 102.4
r345 183 186 1.48214
r346 183 245 102.4
r347 179 294 102.4
r348 176 330 0.0146154
r349 174 176 102.4
r350 174 179 1.07143
r351 171 293 102.4
r352 166 168 102.4
r353 166 171 1.07143
r354 164 324 0.0292308
r355 162 164 102.4
r356 161 222 0.236014
r357 161 162 1.00893
r358 159 320 0.0292308
r359 157 159 102.4
r360 156 219 0.236014
r361 156 157 1.00893
r362 153 289 102.4
r363 150 316 0.0140741
r364 148 150 102.4
r365 148 153 1.0625
r366 146 312 0.350769
r367 144 146 102.4
r368 141 144 1.72321
r369 141 288 102.4
r370 137 268 102.4
r371 134 310 0.00844444
r372 132 134 102.4
r373 132 137 1.03571
r374 130 307 0.0281481
r375 128 130 102.4
r376 125 128 1.48214
r377 125 233 102.4
r378 122 302 0.350769
r379 120 122 102.4
r380 117 120 1.72321
r381 117 284 102.4
r382 115 216 0.236014
r383 114 212 0.236014
r384 114 115 0.553571
r385 112 226 0.0292308
r386 110 112 102.4
r387 109 210 0.236014
r388 109 110 1.00893
.ends

.subckt PM_ACCUMULATOR%VDD 84 86 88 90 101 102 105 106 109 110 117 119 123 131
+ 136 138 140 146 148 154 163 170 172 178 180 183 185 188 190 194 199 202 207
+ 209 217 219 224 227 230 233 259 264 267 269 283 292 295 299 303 307 311 318
+ 324 328
c321 328 0 0.00524463f
c322 324 0 0.00516028f
c323 307 0 0.00508477f
c324 303 0 0.00519709f
c325 295 0 0.00181172f
c326 269 0 0.281073f
c327 267 0 0.00190582f
c328 264 0 0.340374f
c329 233 0 0.00429241f
c330 230 0 0.00457537f
c331 227 0 0.00362f
c332 224 0 0.00351223f
c333 219 0 0.00438098f
c334 217 0 0.00563152f
c335 209 0 0.0117797f
c336 207 0 0.00353599f
c337 202 0 0.0138864f
c338 199 0 0.00994069f
c339 194 0 0.0138027f
c340 190 0 0.00636233f
c341 188 0 0.00417191f
c342 185 0 0.00636233f
c343 183 0 0.00545785f
c344 180 0 0.0227844f
c345 178 0 0.0060876f
c346 172 0 0.0164262f
c347 170 0 0.0208039f
c348 163 0 0.00768954f
c349 154 0 0.00929481f
c350 148 0 0.0167413f
c351 146 0 0.0100093f
c352 140 0 0.00366402f
c353 138 0 0.00873896f
c354 136 0 0.00568158f
c355 131 0 0.00432767f
c356 123 0 0.108419f
c357 119 0 0.00907849f
c358 117 0 0.00566921f
c359 116 0 9.60883e-19
c360 110 0 0.00447261f
c361 109 0 0.00107715f
c362 106 0 0.00474152f
c363 105 0 0.00108842f
c364 102 0 0.00842244f
c365 101 0 9.29152e-19
c366 90 0 0.0108632f
r367 283 285 0.4408
r368 278 279 0.1159
r369 277 278 0.1425
r370 269 285 0.1805
r371 269 283 0.7657
r372 269 279 0.0741
r373 269 277 0.0019
r374 262 264 0.3116
r375 259 262 0.0266
r376 258 259 0.0662671
r377 254 259 0.0931
r378 253 254 0.0323
r379 253 259 0.2793
r380 249 259 0.1843
r381 248 249 0.0988
r382 248 259 0.1368
r383 244 259 0.0704
r384 240 259 0.0551
r385 239 240 0.0475
r386 237 239 0.2394
r387 236 328 0.00844444
r388 234 236 102.4
r389 231 233 102.4
r390 228 230 102.4
r391 225 227 102.4
r392 224 267 0.0281481
r393 222 224 102.4
r394 219 285 102.4
r395 217 234 0.236014
r396 217 219 0.723214
r397 214 262 102.4
r398 211 324 0.00844444
r399 209 211 102.4
r400 209 214 1.5
r401 205 207 102.4
r402 202 205 1.35714
r403 202 258 102.4
r404 199 318 0.876923
r405 197 199 102.4
r406 194 197 1.35714
r407 194 254 102.4
r408 190 253 102.4
r409 188 231 0.236014
r410 188 190 1.00893
r411 185 249 102.4
r412 183 228 0.236014
r413 183 185 1.00893
r414 180 248 102.4
r415 178 225 0.23039
r416 178 180 2.16964
r417 175 279 102.4
r418 172 311 1.65154
r419 170 172 102.4
r420 170 175 2.70536
r421 168 307 0.00140741
r422 166 168 102.4
r423 163 166 0.964286
r424 163 278 102.4
r425 159 244 102.4
r426 156 303 0.00844444
r427 154 156 102.4
r428 154 159 1.5
r429 151 277 102.4
r430 148 299 1.65154
r431 146 148 102.4
r432 146 151 2.70536
r433 143 240 102.4
r434 140 295 0.0281481
r435 138 140 102.4
r436 138 143 1.51786
r437 136 292 0.0146154
r438 134 136 102.4
r439 131 134 0.955357
r440 128 131 102.4
r441 128 269 0.0949667
r442 126 128 102.4
r443 123 126 20.3482
r444 123 239 102.4
r445 119 237 102.4
r446 117 222 0.236014
r447 117 119 1.27679
r448 115 207 0.191407
r449 115 116 0.188593
r450 109 233 0.191407
r451 109 110 0.188593
r452 105 230 0.191407
r453 105 106 0.188593
r454 101 227 0.191407
r455 101 102 0.188593
r456 90 116 0.482308
r457 88 110 0.248462
r458 86 106 0.248462
r459 84 102 0.453077
.ends

.subckt PM_ACCUMULATOR%XI0/NET19 20 23 26 28 30 35 38 40 41 42 43 45 47 49 51 53
+ 57 64 69 73 76 81 83 86 88 90 102 107 111 115
c225 115 0 0.0034342f
c226 111 0 0.0051858f
c227 107 0 0.00537745f
c228 102 0 0.00498193f
c229 90 0 0.00306582f
c230 88 0 4.963e-19
c231 86 0 0.0578024f
c232 83 0 0.00556079f
c233 81 0 0.00459916f
c234 76 0 0.0709119f
c235 73 0 0.00585187f
c236 69 0 0.0025618f
c237 64 0 0.00116779f
c238 61 0 0.00638597f
c239 57 0 0.00311628f
c240 53 0 0.00462075f
c241 51 0 0.00136925f
c242 49 0 0.0282945f
c243 47 0 0.0231449f
c244 45 0 0.0105671f
c245 43 0 0.020774f
c246 42 0 0.00454986f
c247 41 0 0.0224879f
c248 38 0 0.177013f
c249 35 0 0.068906f
c250 30 0 0.0433234f
c251 26 0 0.187868f
c252 23 0 0.0712645f
c253 20 0 0.0433772f
r254 95 107 0.00703704
r255 93 95 102.4
r256 92 111 0.00703704
r257 90 92 102.4
r258 88 90 0.108621
r259 86 115 102.4
r260 84 88 0.124138
r261 84 86 5.11607
r262 83 93 0.236014
r263 83 86 2.00893
r264 79 81 102.4
r265 76 79 20.5625
r266 71 73 89.3538
r267 69 71 0.0146154
r268 64 67 0.0146154
r269 64 102 89.3538
r270 61 100 4.7687
r271 59 61 89.3538
r272 57 59 0.0146154
r273 51 53 89.3538
r274 51 55 0.0146154
r275 50 57 0.0223169
r276 49 69 0.0223169
r277 49 50 5.93385
r278 48 55 0.0223169
r279 47 67 0.0223169
r280 47 48 5.26154
r281 46 115 0.0223169
r282 45 57 0.0223169
r283 45 46 1.98769
r284 43 115 0.0223169
r285 43 81 3.88769
r286 42 76 102.4
r287 41 55 0.0223169
r288 41 42 4.18
r289 38 40 279.63
r290 37 73 4.7687
r291 37 40 263.25
r292 33 102 4.7687
r293 33 35 185.25
r294 29 102 4.7687
r295 29 30 87.75
r296 28 100 263.25
r297 26 28 279.63
r298 22 53 4.7687
r299 22 23 185.25
r300 19 53 4.7687
r301 19 20 87.75
.ends

.subckt PM_ACCUMULATOR%NET20 9 12 14 15 17 23 25 26 28 34 36 43 49 51
c90 51 0 0.00343589f
c91 49 0 0.00183199f
c92 43 0 0.00529128f
c93 36 0 0.00347022f
c94 34 0 0.0591599f
c95 28 0 0.00427354f
c96 26 0 0.0309008f
c97 25 0 0.00494496f
c98 23 0 0.00135691f
c99 17 0 0.0196823f
c100 15 0 0.00180471f
c101 12 0 0.0488815f
c102 9 0 0.0744031f
r103 39 51 102.4
r104 36 49 0.0281481
r105 34 36 102.4
r106 34 39 4.57143
r107 31 43 102.4
r108 26 28 102.4
r109 26 31 2.69643
r110 23 25 89.3538
r111 18 51 0.0223169
r112 17 23 0.0223169
r113 17 18 4.61846
r114 15 51 0.0223169
r115 15 28 0.730769
r116 14 43 0.0438462
r117 11 25 4.7687
r118 11 12 107.25
r119 8 25 4.7687
r120 8 9 184.86
.ends

.subckt PM_ACCUMULATOR%COUT 9 11 14 17 19 20 28 29 31 35 36 37 39 41 43 57 60 61
+ 65 70 73 75 77
c130 77 0 0.00454251f
c131 75 0 0.00439741f
c132 73 0 0.0043936f
c133 70 0 0.00375372f
c134 65 0 0.00538017f
c135 61 0 0.0154795f
c136 60 0 0.00204019f
c137 57 0 0.00370563f
c138 43 0 0.00457597f
c139 41 0 0.0744937f
c140 39 0 0.0419191f
c141 37 0 0.00377125f
c142 36 0 0.00199894f
c143 35 0 0.00424416f
c144 31 0 0.0426005f
c145 29 0 0.00591098f
c146 28 0 0.004365f
c147 20 0 9.88949e-19
c148 17 0 0.0137071f
c149 14 0 0.00543944f
c150 11 0 0.0135334f
c151 9 0 0.075352f
r152 77 78 0.0143939
r153 60 70 0.0422222
r154 58 60 102.4
r155 55 57 102.4
r156 54 65 0.0438462
r157 52 54 102.4
r158 51 61 0.847692
r159 49 51 102.4
r160 46 78 102.4
r161 41 43 102.4
r162 41 46 22.4464
r163 39 75 102.4
r164 37 58 0.236014
r165 37 39 1.25
r166 36 55 0.236014
r167 36 39 4.47321
r168 33 35 102.4
r169 31 33 0.803571
r170 31 73 102.4
r171 29 52 0.236014
r172 29 33 1.25
r173 28 49 0.236014
r174 28 31 3.66964
r175 20 57 0.191407
r176 20 21 0.188593
r177 17 77 0.0252118
r178 17 19 0.789231
r179 14 21 0.453077
r180 12 35 0.0223169
r181 11 75 0.0223169
r182 11 12 3.30308
r183 10 73 0.0223169
r184 9 43 0.0223169
r185 9 10 14.8785
.ends

.subckt PM_ACCUMULATOR%XI0/XI1/NET22 5 12 14 16 24 33 38 40 48 50 54
c90 54 0 0.00344592f
c91 50 0 0.00448226f
c92 48 0 0.00745291f
c93 40 0 0.00909822f
c94 38 0 0.00413693f
c95 33 0 0.00526044f
c96 24 0 0.00492137f
c97 16 0 0.008775f
c98 14 0 0.0186191f
c99 12 0 0.0194904f
c100 5 0 0.00924831f
r101 50 52 0.0146154
r102 36 38 102.4
r103 33 36 0.741071
r104 33 46 102.4
r105 29 54 102.4
r106 26 40 0.350769
r107 24 26 102.4
r108 24 29 0.741071
r109 21 52 102.4
r110 18 48 0.351852
r111 16 18 102.4
r112 16 21 0.741071
r113 15 54 0.0223169
r114 14 38 0.0223169
r115 14 15 4.80846
r116 13 50 0.0223169
r117 12 54 0.0223169
r118 12 13 4.69154
r119 5 46 0.350769
.ends

.subckt PM_ACCUMULATOR%XI0/XI1/NET26 5 11 13 15 22 27 30 35 37 39 48 50 54 58
c97 58 0 0.00344667f
c98 54 0 0.00447511f
c99 50 0 0.0139196f
c100 39 0 0.00430172f
c101 37 0 0.00551597f
c102 35 0 0.013608f
c103 30 0 0.00502218f
c104 27 0 0.00278911f
c105 22 0 0.00824847f
c106 20 0 7.61587e-19
c107 15 0 0.0197655f
c108 13 0 0.0199826f
c109 11 0 0.00571607f
r110 54 56 0.0146154
r111 42 50 102.4
r112 37 39 102.4
r113 37 42 0.741071
r114 35 48 1.63692
r115 33 35 102.4
r116 30 33 0.741071
r117 30 58 102.4
r118 25 27 102.4
r119 22 25 0.741071
r120 22 56 102.4
r121 19 27 0.176429
r122 19 20 0.192522
r123 16 58 0.0223169
r124 15 39 0.0223169
r125 15 16 4.80846
r126 14 54 0.0223169
r127 13 58 0.0223169
r128 13 14 4.69154
r129 11 20 1.22769
r130 5 50 1.63692
.ends

.subckt PM_ACCUMULATOR%XI2/NET22 6 14 15 17 19 21 28 30 36 38 45 48 55 59 60 64
+ 66 68
c93 68 0 0.00425025f
c94 66 0 0.00463213f
c95 64 0 0.00456812f
c96 59 0 0.00187792f
c97 55 0 0.00504818f
c98 48 0 0.0191944f
c99 45 0 0.00529745f
c100 38 0 0.00346609f
c101 36 0 0.0807722f
c102 30 0 0.00158586f
c103 28 0 0.00203315f
c104 21 0 0.00383357f
c105 19 0 0.00737648f
c106 17 0 0.0177539f
c107 15 0 0.0488815f
c108 14 0 0.00629991f
c109 6 0 0.0439312f
r110 66 67 0.0143939
r111 64 65 0.0143939
r112 53 68 0.0143939
r113 51 53 102.4
r114 48 51 1.91964
r115 48 67 102.4
r116 45 60 0.00703704
r117 43 45 102.4
r118 41 43 4.65179
r119 41 65 102.4
r120 38 59 0.0281481
r121 36 38 102.4
r122 36 41 2.64286
r123 32 34 89.3538
r124 30 32 0.0292308
r125 28 55 89.3538
r126 22 68 0.0252118
r127 21 30 0.0223169
r128 21 22 1.27154
r129 20 28 0.0223169
r130 19 66 0.0252118
r131 19 20 1.53462
r132 18 64 0.0252118
r133 17 28 0.0223169
r134 17 18 3.25923
r135 14 34 4.79248
r136 14 15 107.25
r137 11 55 4.7687
r138 6 11 100.23
.ends

.subckt PM_ACCUMULATOR%XI0/XI1/NET28 5 12 14 16 27 36 41 43 51 53 57 61
c79 61 0 0.00444633f
c80 57 0 0.0045519f
c81 53 0 0.00446783f
c82 51 0 0.00828314f
c83 43 0 0.0089917f
c84 41 0 0.00437304f
c85 36 0 0.00689265f
c86 27 0 0.00767547f
c87 16 0 0.0148772f
c88 14 0 0.00252896f
c89 12 0 0.020495f
c90 5 0 0.00923161f
r91 61 63 0.0146154
r92 53 55 0.0146154
r93 39 41 102.4
r94 36 39 1.4375
r95 36 49 102.4
r96 32 63 102.4
r97 29 43 0.350769
r98 27 29 102.4
r99 27 32 2.20536
r100 25 57 0.0292308
r101 23 25 102.4
r102 21 23 0.767857
r103 21 55 102.4
r104 18 51 0.351852
r105 16 18 102.4
r106 16 21 1.4375
r107 15 57 0.0223169
r108 14 61 0.0223169
r109 14 15 0.511538
r110 13 53 0.0223169
r111 12 41 0.0223169
r112 12 13 5.7
r113 5 49 0.350769
.ends

.subckt PM_ACCUMULATOR%XI0/XI1/NET32 5 11 13 15 22 27 30 35 37 39 48 50 54 58
c79 58 0 0.00349423f
c80 54 0 0.00460659f
c81 50 0 0.0140095f
c82 39 0 0.00436483f
c83 37 0 0.00692528f
c84 35 0 0.0134342f
c85 30 0 0.0060227f
c86 27 0 0.00269712f
c87 22 0 0.00947174f
c88 20 0 7.71581e-19
c89 15 0 0.0168398f
c90 13 0 0.00265183f
c91 11 0 0.00756553f
r92 54 56 0.0146154
r93 42 50 102.4
r94 37 39 102.4
r95 37 42 1.49107
r96 35 48 1.66615
r97 33 35 102.4
r98 30 33 1.49107
r99 30 58 102.4
r100 25 27 102.4
r101 22 25 1.49107
r102 22 56 102.4
r103 19 27 0.176429
r104 19 20 0.192522
r105 16 58 0.0223169
r106 15 39 0.0223169
r107 15 16 4.80846
r108 14 54 0.0223169
r109 13 58 0.0223169
r110 13 14 0.511538
r111 11 20 1.25692
r112 5 50 1.66615
.ends

.subckt PM_ACCUMULATOR%SOUT 20 23 26 28 30 32 35 37 39 42 43 45 46 48 49 51 56
+ 58 62 65 67 69 71 78 80 82 94 95 104
c189 104 0 0.00469781f
c190 94 0 0.00182393f
c191 82 0 0.0347546f
c192 80 0 0.146823f
c193 78 0 0.00521264f
c194 71 0 0.00351226f
c195 69 0 0.0866479f
c196 65 0 0.00450567f
c197 62 0 0.011803f
c198 58 0 0.00426219f
c199 56 0 0.0584288f
c200 51 0 0.00556841f
c201 49 0 0.00245982f
c202 48 0 0.00533102f
c203 46 0 0.00236044f
c204 45 0 0.0064065f
c205 43 0 0.00175125f
c206 42 0 0.00463554f
c207 39 0 0.0175429f
c208 37 0 0.0807923f
c209 35 0 0.00793097f
c210 30 0 0.175144f
c211 26 0 0.172734f
c212 23 0 0.0961673f
c213 20 0 0.0650451f
r214 85 104 102.4
r215 80 82 102.4
r216 80 85 33.8661
r217 78 95 0.00703704
r218 76 78 102.4
r219 74 76 4.65179
r220 71 94 0.0281481
r221 69 71 102.4
r222 69 74 2.64286
r223 63 65 102.4
r224 63 67 5.28571
r225 60 62 102.4
r226 60 63 1.33036
r227 56 58 102.4
r228 56 60 1.5625
r229 49 51 89.3538
r230 46 48 89.3538
r231 43 45 89.3538
r232 42 74 102.4
r233 42 82 4.69154
r234 40 46 0.0223169
r235 39 49 0.0223169
r236 39 40 3.69769
r237 38 65 0.0223169
r238 37 104 0.0223169
r239 37 38 13.1392
r240 36 58 0.0322149
r241 35 46 0.0223169
r242 35 36 1.87077
r243 34 43 0.0223169
r244 34 62 1.37385
r245 30 32 279.63
r246 29 51 4.7687
r247 29 32 230.1
r248 26 28 279.63
r249 25 48 4.7687
r250 25 28 230.1
r251 22 45 4.7687
r252 22 23 193.83
r253 19 45 4.7687
r254 19 20 119.73
.ends

.subckt PM_ACCUMULATOR%XI0/XI1/NET23 3 9 12 19 27 33 37
c54 37 0 0.00446495f
c55 33 0 0.00427062f
c56 27 0 0.0094387f
c57 19 0 0.00784524f
c58 12 0 0.00792971f
c59 9 0 0.00557367f
c60 3 0 0.00929229f
r61 24 37 102.4
r62 21 27 0.350769
r63 19 21 102.4
r64 19 24 2.20536
r65 17 33 0.0146154
r66 15 17 102.4
r67 12 15 2.20536
r68 12 32 102.4
r69 10 33 0.0223169
r70 9 37 0.0223169
r71 9 10 1.63692
r72 3 32 0.359848
.ends

.subckt PM_ACCUMULATOR%XI0/XI1/NET25 3 10 16 25 30 32 35 37 41
c57 41 0 0.00445228f
c58 37 0 0.00422943f
c59 32 0 0.00345533f
c60 30 0 0.0144563f
c61 25 0 0.00771726f
c62 16 0 0.0110746f
c63 10 0 0.00550106f
c64 7 0 9.54562e-19
c65 3 0 0.00923723f
r66 30 35 1.66615
r67 28 30 102.4
r68 25 28 2.20536
r69 25 41 102.4
r70 21 32 102.4
r71 18 37 0.0146154
r72 16 18 102.4
r73 16 21 2.20536
r74 14 32 0.191407
r75 11 37 0.0223169
r76 10 41 0.0223169
r77 10 11 1.63692
r78 7 14 0.188593
r79 3 7 1.25692
.ends

.subckt PM_ACCUMULATOR%XI0/XI0/NET17 2 4 7 9 13 15 22 27 30 35
c59 35 0 0.00444167f
c60 30 0 0.0126525f
c61 27 0 0.00420344f
c62 22 0 0.0507654f
c63 15 0 0.00356324f
c64 13 0 0.0234589f
c65 9 0 0.00106068f
c66 7 0 0.0103304f
c67 4 0 0.00579716f
r68 25 27 102.4
r69 22 25 4.3125
r70 22 30 102.4
r71 18 35 102.4
r72 13 15 102.4
r73 13 18 3.28571
r74 9 15 0.191407
r75 9 10 0.188593
r76 8 35 0.0223169
r77 7 27 0.0223169
r78 7 8 2.67462
r79 4 10 0.453077
r80 2 30 0.833077
.ends

.subckt PM_ACCUMULATOR%XI0/XI0/NET15 2 3 10 15 17 19 25 33
c44 33 0 0.00437693f
c45 25 0 0.00385901f
c46 19 0 0.00422551f
c47 17 0 0.0207991f
c48 15 0 0.00204274f
c49 10 0 0.0146681f
c50 3 0 0.0128737f
c51 2 0 0.00520974f
r52 22 31 102.4
r53 17 19 102.4
r54 17 22 1.48214
r55 15 25 0.0422222
r56 13 15 102.4
r57 10 13 1.49107
r58 10 33 102.4
r59 4 33 0.0223169
r60 3 19 0.0223169
r61 3 4 2.67462
r62 2 31 0.0292308
.ends

.subckt PM_ACCUMULATOR%XI2/NET15 6 15 18 19 25 26 30 32 40 43 48 49 51 53
c85 53 0 0.0045241f
c86 51 0 0.00179485f
c87 49 0 0.00477343f
c88 48 0 0.00393671f
c89 45 0 0.00171019f
c90 44 0 0.0139465f
c91 43 0 0.00347022f
c92 40 0 0.0526735f
c93 37 0 0.00136874f
c94 34 0 0.00173592f
c95 32 0 0.00569599f
c96 30 0 0.00129023f
c97 26 0 0.00744758f
c98 25 0 0.00103184f
c99 19 0 0.00842664f
c100 15 0 0.0952003f
c101 6 0 0.0280277f
r102 53 54 0.0143939
r103 46 48 102.4
r104 43 51 0.0281481
r105 41 43 102.4
r106 40 46 0.236014
r107 40 45 5.46429
r108 37 54 102.4
r109 35 45 0.124138
r110 35 37 0.108621
r111 34 44 0.124138
r112 34 37 0.108621
r113 32 41 0.236014
r114 32 44 1.11607
r115 30 49 89.3538
r116 25 48 0.191407
r117 25 26 0.188593
r118 20 53 0.0252118
r119 19 30 0.0223169
r120 19 20 1.52
r121 18 26 0.248462
r122 14 49 4.7687
r123 14 15 237.51
r124 11 49 4.7687
r125 6 11 54.6
.ends

.subckt PM_ACCUMULATOR%NET21 16 20 22 27 29 31 35 38 44 45 47 49 57 60 62 68 69
+ 75 77 89 97 101 103 105 109 113 117 119 121 124
c182 124 0 0.00476074f
c183 121 0 0.00427587f
c184 119 0 0.00429124f
c185 117 0 0.0134593f
c186 113 0 0.00440859f
c187 109 0 0.0043854f
c188 105 0 0.00440743f
c189 103 0 0.0101536f
c190 97 0 0.00551953f
c191 96 0 0.00116272f
c192 94 0 0.00108323f
c193 89 0 0.0224843f
c194 77 0 0.134954f
c195 75 0 0.00840817f
c196 71 0 4.75054e-19
c197 69 0 0.00100596f
c198 68 0 0.00220749f
c199 64 0 4.75054e-19
c200 62 0 0.00105583f
c201 60 0 0.00683797f
c202 57 0 0.00126066f
c203 49 0 0.0095975f
c204 47 0 0.00345338f
c205 45 0 0.00655722f
c206 44 0 0.00274845f
c207 43 0 9.54161e-19
c208 38 0 0.00210965f
c209 35 0 0.00384405f
c210 31 0 0.0156844f
c211 29 0 0.0158804f
c212 27 0 0.0115592f
c213 22 0 0.0762995f
c214 20 0 0.0298735f
c215 16 0 0.0923234f
r216 113 115 0.0146154
r217 109 111 0.0146154
r218 105 107 0.0146154
r219 92 117 0.351852
r220 90 92 102.4
r221 89 101 1.65154
r222 87 89 102.4
r223 85 111 102.4
r224 82 124 0.0143939
r225 80 82 102.4
r226 77 80 16.9375
r227 75 87 0.236014
r228 75 96 1.72321
r229 73 121 0.0143939
r230 71 73 102.4
r231 70 96 0.124138
r232 70 71 0.108621
r233 69 71 0.108621
r234 68 69 0.124138
r235 68 94 0.267857
r236 66 119 0.0143939
r237 64 66 102.4
r238 63 94 0.124138
r239 63 64 0.108621
r240 62 64 0.108621
r241 60 115 102.4
r242 58 62 0.124138
r243 58 60 1.25893
r244 57 90 0.236014
r245 57 60 0.491071
r246 54 107 102.4
r247 51 103 0.351852
r248 49 51 102.4
r249 49 54 2.23214
r250 45 47 102.4
r251 44 85 0.236014
r252 44 45 1.96429
r253 42 47 0.191407
r254 42 43 0.188593
r255 38 97 89.3538
r256 36 113 0.0223169
r257 35 124 0.0252118
r258 35 36 0.540769
r259 32 109 0.0223169
r260 31 121 0.0252118
r261 31 32 4.80846
r262 30 105 0.0223169
r263 29 119 0.0252118
r264 29 30 4.80846
r265 27 43 1.25692
r266 23 38 0.0223169
r267 22 77 102.4
r268 22 23 16.34
r269 18 97 4.7687
r270 18 20 59.67
r271 15 97 4.7687
r272 15 16 246.48
.ends

.subckt PM_ACCUMULATOR%XI2/NET17 5 12 15 17 23 26 27 40 44 46
c63 46 0 0.00473344f
c64 44 0 0.00346905f
c65 40 0 0.0124713f
c66 27 0 0.0814067f
c67 26 0 0.00563834f
c68 25 0 0.00537684f
c69 23 0 0.00463984f
c70 17 0 0.00863764f
c71 15 0 0.122247f
c72 12 0 0.0366347f
c73 5 0 0.00179441f
r74 35 44 102.4
r75 32 40 0.643077
r76 30 32 102.4
r77 29 46 0.0143939
r78 27 29 102.4
r79 27 30 5.94643
r80 26 35 0.236014
r81 26 27 1.35714
r82 25 39 4.7687
r83 25 38 4.7687
r84 23 25 89.3538
r85 18 46 0.0252118
r86 17 23 0.0389112
r87 17 18 1.40308
r88 15 39 251.55
r89 12 38 61.62
r90 5 44 0.0281481
.ends

.subckt PM_ACCUMULATOR%XI0/XI1/NET29 3 9 12 19 27 33 37
c51 37 0 0.00446927f
c52 33 0 0.00432864f
c53 27 0 0.00876544f
c54 19 0 0.00808123f
c55 12 0 0.00759866f
c56 9 0 0.00625082f
c57 3 0 0.00942665f
r58 24 37 102.4
r59 21 27 0.350769
r60 19 21 102.4
r61 19 24 1.48214
r62 17 33 0.0146154
r63 15 17 102.4
r64 12 15 1.48214
r65 12 32 102.4
r66 10 33 0.0223169
r67 9 37 0.0223169
r68 9 10 1.63692
r69 3 32 0.359848
.ends

.subckt PM_ACCUMULATOR%XI0/XI1/NET31 3 10 16 25 30 32 35 37 41
c56 41 0 0.00446889f
c57 37 0 0.00410539f
c58 32 0 0.00345548f
c59 30 0 0.0129989f
c60 25 0 0.00790395f
c61 16 0 0.00734925f
c62 10 0 0.00640058f
c63 7 0 9.54443e-19
c64 3 0 0.00958283f
r65 41 43 0.0146154
r66 30 35 1.68077
r67 28 30 102.4
r68 25 28 1.48214
r69 25 43 102.4
r70 21 32 102.4
r71 18 37 0.0292308
r72 16 18 102.4
r73 16 21 1.48214
r74 14 32 0.191407
r75 11 37 0.0223169
r76 10 41 0.0223169
r77 10 11 1.63692
r78 7 14 0.188593
r79 3 7 1.27154
.ends

.subckt PM_ACCUMULATOR%CIN 10 13 16 19 21 23 25 27 29 31 33 34 38 40 42 48 61 65
c105 65 0 0.00473967f
c106 61 0 0.0037638f
c107 48 0 0.0492269f
c108 42 0 0.0044686f
c109 40 0 0.015516f
c110 38 0 0.00631682f
c111 34 0 0.00165711f
c112 33 0 0.00615939f
c113 31 0 0.00228282f
c114 29 0 0.00634709f
c115 27 0 0.00838723f
c116 25 0 0.0216346f
c117 21 0 0.0958849f
c118 19 0 0.0537075f
c119 16 0 0.105753f
c120 13 0 0.0301625f
c121 10 0 0.11828f
r122 61 63 0.0146154
r123 50 65 0.0292308
r124 48 50 102.4
r125 48 53 11.0536
r126 45 63 102.4
r127 40 42 102.4
r128 40 45 0.839286
r129 36 38 89.3538
r130 34 36 0.0146154
r131 33 58 4.7687
r132 33 57 4.7687
r133 31 33 89.3538
r134 30 34 0.0223169
r135 29 65 0.0223169
r136 29 30 1.08154
r137 28 61 0.0223169
r138 27 31 0.0223169
r139 27 28 1.69538
r140 26 42 0.0223169
r141 25 53 102.4
r142 25 26 3.63923
r143 21 61 0.0223169
r144 21 23 14.6592
r145 18 38 4.7687
r146 18 19 63.18
r147 15 38 4.7687
r148 15 16 204.75
r149 13 58 47.58
r150 10 57 265.98
.ends

.subckt PM_ACCUMULATOR%XI0/NET20 12 17 20 22 23 25 27 30 32 36 38 39 41 47 52 56
+ 59 60 63 67 71 72 74
c147 74 0 0.00466337f
c148 72 0 0.00582046f
c149 71 0 0.00447083f
c150 60 0 0.00644122f
c151 59 0 0.00521616f
c152 56 0 0.00522551f
c153 52 0 0.0046615f
c154 47 0 0.0580761f
c155 41 0 0.0585683f
c156 39 0 0.00573438f
c157 38 0 0.00359893f
c158 36 0 0.00711971f
c159 32 0 0.00314604f
c160 30 0 0.00109195f
c161 27 0 0.0120166f
c162 25 0 0.02518f
c163 23 0 0.0549889f
c164 20 0 0.256392f
c165 17 0 0.0800502f
c166 12 0 0.0704628f
r167 59 67 0.00703704
r168 57 59 102.4
r169 56 63 0.00703704
r170 54 56 102.4
r171 50 52 102.4
r172 47 50 19.0714
r173 47 74 102.4
r174 45 72 0.0410072
r175 43 45 102.4
r176 41 43 1.54464
r177 41 71 102.4
r178 39 57 0.229044
r179 39 43 4.30357
r180 38 54 0.23039
r181 38 41 1.27679
r182 34 36 89.3538
r183 32 34 0.0146154
r184 30 60 89.3538
r185 28 71 0.0223169
r186 27 52 0.0223169
r187 27 28 1.84154
r188 26 32 0.0223169
r189 25 72 0.0349284
r190 25 26 4.92538
r191 24 30 0.0223169
r192 23 74 0.0223169
r193 23 24 9.77769
r194 20 22 279.63
r195 19 36 4.7687
r196 19 22 297.57
r197 15 60 4.7687
r198 15 17 151.71
r199 11 60 4.7687
r200 11 12 121.29
.ends

.subckt PM_ACCUMULATOR%PHI 10 13 16 19 21 23 25 27 31 34 36 37 39
c96 39 0 0.00503359f
c97 37 0 0.0450219f
c98 36 0 0.00513347f
c99 34 0 0.00202372f
c100 33 0 0.00547894f
c101 31 0 0.00146844f
c102 27 0 0.0146204f
c103 25 0 0.0167639f
c104 21 0 0.0329415f
c105 19 0 0.058697f
c106 16 0 0.0635905f
c107 13 0 0.0817385f
c108 10 0 0.0772685f
r109 37 39 89.3538
r110 34 36 89.3538
r111 31 33 89.3538
r112 28 34 0.0223169
r113 27 37 0.0223169
r114 27 28 3.18615
r115 26 31 0.0223169
r116 25 34 0.0223169
r117 25 26 3.81462
r118 21 31 0.0223169
r119 21 23 4.37
r120 18 39 4.7687
r121 18 19 142.35
r122 15 36 4.7687
r123 15 16 149.76
r124 12 33 4.7687
r125 12 13 163.8
r126 9 33 4.7687
r127 9 10 149.37
.ends

.subckt PM_ACCUMULATOR%RST 4 7 10 12 16 18
c61 18 0 0.00483462f
c62 16 0 0.0808638f
c63 10 0 0.0175653f
c64 7 0 0.0379303f
c65 4 0 0.0830167f
r66 18 21 4.7687
r67 18 20 4.7687
r68 16 18 89.3538
r69 10 16 0.0223169
r70 10 12 1.9
r71 7 21 86.58
r72 4 20 219.57
.ends

